<routes>
    <vType id="car" accel="2.6" decel="4.5" sigma="0.5" length="5" maxSpeed="70" color="0.8,0.8,0.8"/>
    <vType id="ambulance" accel="6.0" decel="9.0" sigma="0" length="7" maxSpeed="120" vClass="emergency" color="1,0,0"/>

    <vehicle id="amb_1" type="ambulance" depart="0" departLane="free" departPos="random" departSpeed="0">
        <route edges="e5"/>
    </vehicle>
    <vehicle id="amb_2" type="ambulance" depart="0" departLane="free" departPos="random" departSpeed="0">
        <route edges="e10"/>
    </vehicle>
    <vehicle id="amb_3" type="ambulance" depart="0" departLane="free" departPos="random" departSpeed="0">
        <route edges="e1"/>
    </vehicle>

    <vehicle id="amb_4" type="ambulance" depart="0" departLane="free" departPos="random" departSpeed="0">
        <route edges="e2"/>
    </vehicle>
    <vehicle id="amb_5" type="ambulance" depart="0" departLane="free" departPos="random" departSpeed="0">
        <route edges="e3"/>
    </vehicle>
    <vehicle id="amb_6" type="ambulance" depart="0" departLane="free" departPos="random" departSpeed="0">
        <route edges="e4"/>
    </vehicle>
    <vehicle id="amb_7" type="ambulance" depart="0" departLane="free" departPos="random" departSpeed="0">
        <route edges="e7_rev"/>
    </vehicle>
    <vehicle id="amb_8" type="ambulance" depart="0" departLane="free" departPos="random" departSpeed="0">
        <route edges="e11_rev"/>
    </vehicle>
    
    <flow id="bg_traffic" type="car" begin="0" end="1000" number="100" from="e6" to="e2"/>
</routes>