<routes>
    <vType id="car" accel="2.6" decel="4.5" sigma="0.5" length="5" maxSpeed="70" color="0.8,0.8,0.8"/>
    <vType id="truck" accel="1.0" decel="3.0" length="12" maxSpeed="60" color="0.5,0.5,1.0"/>
    <vType id="ambulance" accel="6.0" decel="9.0" sigma="0" length="7" maxSpeed="120" vClass="emergency" color="1,0,0"/>

    <vehicle id="amb_1" type="ambulance" depart="0" departLane="free" departPos="random" departSpeed="0"><route edges="e5"/></vehicle>
    <vehicle id="amb_3" type="ambulance" depart="0" departLane="free" departPos="random" departSpeed="0"><route edges="e3"/></vehicle>
    <vehicle id="amb_4" type="ambulance" depart="0" departLane="free" departPos="random" departSpeed="0"><route edges="e7_rev"/></vehicle>
    <vehicle id="amb_5" type="ambulance" depart="0" departLane="free" departPos="random" departSpeed="0"><route edges="e12"/></vehicle>
    
    <flow id="bg_traffic_main" type="car" begin="0" end="1000" number="40" from="e6" to="e2"/>
    <flow id="bg_cross_1" type="car" begin="50" end="950" number="25" from="e10" to="e8"/>
    <flow id="bg_outer_ring_trucks" type="truck" begin="100" end="800" number="8" from="e1" to="e4"/>
    <flow id="bg_outer_ring_cars" type="car" begin="150" end="900" number="20" from="e4_rev" to="e1_rev"/>
    <flow id="bg_cross_2_short" type="car" begin="300" end="600" probability="0.08" from="e7_rev" to="e11"/>
</routes>