<?xml version="1.0" encoding="UTF-8"?>

<!-- generated on 2025-10-20 21:08:07 by Eclipse SUMO netedit Version 1.24.0
<neteditConfiguration xmlns:xsi="http://www.w3.org/2001/XMLSchema-instance" xsi:noNamespaceSchemaLocation="http://sumo.dlr.de/xsd/neteditConfiguration.xsd">

    <input>
        <sumo-net-file value="C:\Users\SAHANA MT\Desktop\fri\hexagon.net.xml"/>
    </input>

    <output>
        <output-file value="C:\Users\SAHANA MT\Desktop\fri\hexagon.net.xml"/>
    </output>

    <processing>
        <geometry.min-radius.fix.railways value="false"/>
        <geometry.avoid-overlap value="false"/>
        <geometry.max-grade.fix value="false"/>
        <offset.disable-normalization value="true"/>
        <lefthand value="0"/>
    </processing>

    <junctions>
        <no-turnarounds value="true"/>
        <junctions.corner-detail value="5"/>
        <junctions.limit-turn-speed value="5.50"/>
        <rectangular-lane-cut value="0"/>
    </junctions>

    <pedestrian>
        <walkingareas value="0"/>
    </pedestrian>

</neteditConfiguration>
-->

<net version="1.20" junctionCornerDetail="5" limitTurnSpeed="5.50" avoidOverlap="0" xmlns:xsi="http://www.w3.org/2001/XMLSchema-instance" xsi:noNamespaceSchemaLocation="http://sumo.dlr.de/xsd/net_file.xsd">

    <location netOffset="200.00,173.20" convBoundary="0.00,0.00,400.00,346.40" origBoundary="-200.00,-173.20,200.00,173.20" projParameter="!"/>

    <edge id=":n1_0" function="internal">
        <lane id=":n1_0_0" index="0" speed="11.73" length="19.04" shape="306.16,338.94 303.21,342.90 299.62,345.73 295.36,347.43 290.46,348.00"/>
    </edge>
    <edge id=":n1_1" function="internal">
        <lane id=":n1_1_0" index="0" speed="7.40" length="7.21" shape="306.16,338.94 303.08,342.94 301.09,343.80"/>
    </edge>
    <edge id=":n1_2" function="internal">
        <lane id=":n1_2_0" index="0" speed="3.65" length="1.44" shape="306.16,338.94 304.86,339.58"/>
    </edge>
    <edge id=":n1_9" function="internal">
        <lane id=":n1_9_0" index="0" speed="7.40" length="9.59" shape="301.09,343.80 300.00,344.27 296.92,342.93 293.84,338.94"/>
    </edge>
    <edge id=":n1_10" function="internal">
        <lane id=":n1_10_0" index="0" speed="3.65" length="3.23" shape="304.86,339.58 303.97,339.52 303.48,338.78 303.39,337.34"/>
    </edge>
    <edge id=":n1_3" function="internal">
        <lane id=":n1_3_0" index="0" speed="5.67" length="9.24" shape="296.61,337.34 298.31,339.53 300.00,340.27 301.69,339.54 303.39,337.34"/>
    </edge>
    <edge id=":n1_4" function="internal">
        <lane id=":n1_4_0" index="0" speed="7.40" length="16.80" shape="296.61,337.34 298.54,342.00 298.15,345.33 295.46,347.33 290.46,348.00"/>
    </edge>
    <edge id=":n1_5" function="internal">
        <lane id=":n1_5_0" index="0" speed="3.65" length="1.44" shape="296.61,337.34 296.52,338.78"/>
    </edge>
    <edge id=":n1_11" function="internal">
        <lane id=":n1_11_0" index="0" speed="3.65" length="3.23" shape="296.52,338.78 296.03,339.52 295.14,339.58 293.84,338.94"/>
    </edge>
    <edge id=":n1_6" function="internal">
        <lane id=":n1_6_0" index="0" speed="5.67" length="9.24" shape="290.46,344.80 293.21,344.43 294.69,343.33 294.90,341.50 293.84,338.94"/>
    </edge>
    <edge id=":n1_7" function="internal">
        <lane id=":n1_7_0" index="0" speed="10.69" length="15.68" shape="290.46,344.80 294.50,344.33 298.00,342.93 300.96,340.60 303.39,337.34"/>
    </edge>
    <edge id=":n1_8" function="internal">
        <lane id=":n1_8_0" index="0" speed="3.65" length="1.32" shape="290.46,344.80 291.56,345.53"/>
    </edge>
    <edge id=":n1_12" function="internal">
        <lane id=":n1_12_0" index="0" speed="3.65" length="3.35" shape="291.56,345.53 291.66,345.60 292.06,346.40 291.66,347.20 290.46,348.00"/>
    </edge>
    <edge id=":n2_0" function="internal">
        <lane id=":n2_0_0" index="0" speed="11.73" length="19.04" shape="396.61,164.14 398.58,168.67 399.23,173.20 398.58,177.73 396.61,182.26"/>
    </edge>
    <edge id=":n2_1" function="internal">
        <lane id=":n2_1_0" index="0" speed="7.40" length="7.22" shape="396.61,164.14 398.54,168.80 398.29,170.96"/>
    </edge>
    <edge id=":n2_2" function="internal">
        <lane id=":n2_2_0" index="0" speed="3.65" length="1.44" shape="396.61,164.14 396.52,165.58"/>
    </edge>
    <edge id=":n2_9" function="internal">
        <lane id=":n2_9_0" index="0" speed="7.40" length="9.59" shape="398.29,170.96 398.15,172.13 395.46,174.13 390.46,174.80"/>
    </edge>
    <edge id=":n2_10" function="internal">
        <lane id=":n2_10_0" index="0" speed="3.65" length="3.23" shape="396.52,165.58 396.03,166.32 395.14,166.38 393.84,165.74"/>
    </edge>
    <edge id=":n2_3" function="internal">
        <lane id=":n2_3_0" index="0" speed="5.67" length="9.24" shape="390.46,171.60 393.21,171.23 394.69,170.13 394.90,168.30 393.84,165.74"/>
    </edge>
    <edge id=":n2_4" function="internal">
        <lane id=":n2_4_0" index="0" speed="7.40" length="16.80" shape="390.46,171.60 395.46,172.27 398.15,174.27 398.54,177.60 396.61,182.26"/>
    </edge>
    <edge id=":n2_5" function="internal">
        <lane id=":n2_5_0" index="0" speed="3.65" length="1.44" shape="390.46,171.60 391.66,172.40"/>
    </edge>
    <edge id=":n2_11" function="internal">
        <lane id=":n2_11_0" index="0" speed="3.65" length="3.23" shape="391.66,172.40 392.06,173.20 391.66,174.00 390.46,174.80"/>
    </edge>
    <edge id=":n2_6" function="internal">
        <lane id=":n2_6_0" index="0" speed="5.67" length="9.24" shape="393.84,180.66 394.90,178.10 394.69,176.27 393.21,175.17 390.46,174.80"/>
    </edge>
    <edge id=":n2_7" function="internal">
        <lane id=":n2_7_0" index="0" speed="10.68" length="15.68" shape="393.84,180.66 395.46,176.93 396.00,173.20 395.46,169.47 393.84,165.74"/>
    </edge>
    <edge id=":n2_8" function="internal">
        <lane id=":n2_8_0" index="0" speed="3.65" length="1.32" shape="393.84,180.66 395.03,180.08"/>
    </edge>
    <edge id=":n2_12" function="internal">
        <lane id=":n2_12_0" index="0" speed="3.65" length="3.35" shape="395.03,180.08 395.14,180.02 396.03,180.08 396.52,180.82 396.61,182.26"/>
    </edge>
    <edge id=":n3_0" function="internal">
        <lane id=":n3_0_0" index="0" speed="5.67" length="9.24" shape="303.39,9.06 301.69,6.86 300.00,6.13 298.31,6.87 296.61,9.06"/>
    </edge>
    <edge id=":n3_1" function="internal">
        <lane id=":n3_1_0" index="0" speed="10.69" length="15.68" shape="303.39,9.06 300.96,5.80 298.00,3.47 294.50,2.07 290.46,1.60"/>
    </edge>
    <edge id=":n3_2" function="internal">
        <lane id=":n3_2_0" index="0" speed="3.65" length="1.32" shape="303.39,9.06 303.47,7.74"/>
    </edge>
    <edge id=":n3_9" function="internal">
        <lane id=":n3_9_0" index="0" speed="3.65" length="3.35" shape="303.47,7.74 303.48,7.62 303.97,6.88 304.86,6.82 306.16,7.46"/>
    </edge>
    <edge id=":n3_3" function="internal">
        <lane id=":n3_3_0" index="0" speed="11.73" length="19.04" shape="290.46,-1.60 295.36,-1.03 299.62,0.67 303.21,3.50 306.16,7.46"/>
    </edge>
    <edge id=":n3_4" function="internal">
        <lane id=":n3_4_0" index="0" speed="7.40" length="7.21" shape="290.46,-1.60 295.46,-0.93 297.20,0.36"/>
    </edge>
    <edge id=":n3_5" function="internal">
        <lane id=":n3_5_0" index="0" speed="3.65" length="1.44" shape="290.46,-1.60 291.66,-0.80"/>
    </edge>
    <edge id=":n3_10" function="internal">
        <lane id=":n3_10_0" index="0" speed="7.40" length="9.59" shape="297.20,0.36 298.15,1.07 298.54,4.40 296.61,9.06"/>
    </edge>
    <edge id=":n3_11" function="internal">
        <lane id=":n3_11_0" index="0" speed="3.65" length="3.23" shape="291.66,-0.80 292.06,0.00 291.66,0.80 290.46,1.60"/>
    </edge>
    <edge id=":n3_6" function="internal">
        <lane id=":n3_6_0" index="0" speed="5.67" length="9.24" shape="293.84,7.46 294.90,4.90 294.69,3.07 293.21,1.97 290.46,1.60"/>
    </edge>
    <edge id=":n3_7" function="internal">
        <lane id=":n3_7_0" index="0" speed="7.40" length="16.80" shape="293.84,7.46 296.92,3.47 300.00,2.13 303.08,3.46 306.16,7.46"/>
    </edge>
    <edge id=":n3_8" function="internal">
        <lane id=":n3_8_0" index="0" speed="3.65" length="1.44" shape="293.84,7.46 295.14,6.82"/>
    </edge>
    <edge id=":n3_12" function="internal">
        <lane id=":n3_12_0" index="0" speed="3.65" length="3.23" shape="295.14,6.82 296.03,6.88 296.52,7.62 296.61,9.06"/>
    </edge>
    <edge id=":n4_0" function="internal">
        <lane id=":n4_0_0" index="0" speed="5.67" length="9.24" shape="103.39,9.06 101.69,6.87 100.00,6.13 98.31,6.86 96.61,9.06"/>
    </edge>
    <edge id=":n4_1" function="internal">
        <lane id=":n4_1_0" index="0" speed="7.40" length="16.80" shape="103.39,9.06 101.46,4.40 101.85,1.07 104.54,-0.93 109.54,-1.60"/>
    </edge>
    <edge id=":n4_2" function="internal">
        <lane id=":n4_2_0" index="0" speed="3.65" length="1.44" shape="103.39,9.06 103.48,7.62"/>
    </edge>
    <edge id=":n4_9" function="internal">
        <lane id=":n4_9_0" index="0" speed="3.65" length="3.23" shape="103.48,7.62 103.97,6.88 104.86,6.82 106.16,7.46"/>
    </edge>
    <edge id=":n4_3" function="internal">
        <lane id=":n4_3_0" index="0" speed="5.67" length="9.24" shape="109.54,1.60 106.79,1.97 105.31,3.07 105.10,4.90 106.16,7.46"/>
    </edge>
    <edge id=":n4_4" function="internal">
        <lane id=":n4_4_0" index="0" speed="10.69" length="15.68" shape="109.54,1.60 105.50,2.07 102.00,3.47 99.04,5.80 96.61,9.06"/>
    </edge>
    <edge id=":n4_5" function="internal">
        <lane id=":n4_5_0" index="0" speed="3.65" length="1.32" shape="109.54,1.60 108.44,0.87"/>
    </edge>
    <edge id=":n4_10" function="internal">
        <lane id=":n4_10_0" index="0" speed="3.65" length="3.35" shape="108.44,0.87 108.34,0.80 107.94,0.00 108.34,-0.80 109.54,-1.60"/>
    </edge>
    <edge id=":n4_6" function="internal">
        <lane id=":n4_6_0" index="0" speed="11.73" length="19.04" shape="93.84,7.46 96.79,3.50 100.38,0.67 104.64,-1.03 109.54,-1.60"/>
    </edge>
    <edge id=":n4_7" function="internal">
        <lane id=":n4_7_0" index="0" speed="7.40" length="7.21" shape="93.84,7.46 96.92,3.46 98.91,2.60"/>
    </edge>
    <edge id=":n4_8" function="internal">
        <lane id=":n4_8_0" index="0" speed="3.65" length="1.44" shape="93.84,7.46 95.14,6.82"/>
    </edge>
    <edge id=":n4_11" function="internal">
        <lane id=":n4_11_0" index="0" speed="7.40" length="9.59" shape="98.91,2.60 100.00,2.13 103.08,3.47 106.16,7.46"/>
    </edge>
    <edge id=":n4_12" function="internal">
        <lane id=":n4_12_0" index="0" speed="3.65" length="3.23" shape="95.14,6.82 96.03,6.88 96.52,7.62 96.61,9.06"/>
    </edge>
    <edge id=":n5_0" function="internal">
        <lane id=":n5_0_0" index="0" speed="11.73" length="19.04" shape="3.39,182.26 1.42,177.73 0.77,173.20 1.42,168.67 3.39,164.14"/>
    </edge>
    <edge id=":n5_1" function="internal">
        <lane id=":n5_1_0" index="0" speed="7.40" length="7.22" shape="3.39,182.26 1.46,177.60 1.71,175.44"/>
    </edge>
    <edge id=":n5_2" function="internal">
        <lane id=":n5_2_0" index="0" speed="3.65" length="1.44" shape="3.39,182.26 3.48,180.82"/>
    </edge>
    <edge id=":n5_9" function="internal">
        <lane id=":n5_9_0" index="0" speed="7.40" length="9.59" shape="1.71,175.44 1.85,174.27 4.54,172.27 9.54,171.60"/>
    </edge>
    <edge id=":n5_10" function="internal">
        <lane id=":n5_10_0" index="0" speed="3.65" length="3.23" shape="3.48,180.82 3.97,180.08 4.86,180.02 6.16,180.66"/>
    </edge>
    <edge id=":n5_3" function="internal">
        <lane id=":n5_3_0" index="0" speed="5.67" length="9.24" shape="9.54,174.80 6.79,175.17 5.31,176.27 5.10,178.10 6.16,180.66"/>
    </edge>
    <edge id=":n5_4" function="internal">
        <lane id=":n5_4_0" index="0" speed="7.40" length="16.80" shape="9.54,174.80 4.54,174.13 1.85,172.13 1.46,168.80 3.39,164.14"/>
    </edge>
    <edge id=":n5_5" function="internal">
        <lane id=":n5_5_0" index="0" speed="3.65" length="1.44" shape="9.54,174.80 8.34,174.00"/>
    </edge>
    <edge id=":n5_11" function="internal">
        <lane id=":n5_11_0" index="0" speed="3.65" length="3.23" shape="8.34,174.00 7.94,173.20 8.34,172.40 9.54,171.60"/>
    </edge>
    <edge id=":n5_6" function="internal">
        <lane id=":n5_6_0" index="0" speed="5.67" length="9.24" shape="6.16,165.74 5.10,168.30 5.31,170.13 6.79,171.23 9.54,171.60"/>
    </edge>
    <edge id=":n5_7" function="internal">
        <lane id=":n5_7_0" index="0" speed="10.68" length="15.68" shape="6.16,165.74 4.54,169.47 4.00,173.20 4.54,176.93 6.16,180.66"/>
    </edge>
    <edge id=":n5_8" function="internal">
        <lane id=":n5_8_0" index="0" speed="3.65" length="1.32" shape="6.16,165.74 4.97,166.32"/>
    </edge>
    <edge id=":n5_12" function="internal">
        <lane id=":n5_12_0" index="0" speed="3.65" length="3.35" shape="4.97,166.32 4.86,166.38 3.97,166.32 3.48,165.58 3.39,164.14"/>
    </edge>
    <edge id=":n6_0" function="internal">
        <lane id=":n6_0_0" index="0" speed="11.73" length="19.04" shape="109.54,348.00 104.64,347.43 100.38,345.73 96.79,342.90 93.84,338.94"/>
    </edge>
    <edge id=":n6_1" function="internal">
        <lane id=":n6_1_0" index="0" speed="7.40" length="7.21" shape="109.54,348.00 104.54,347.33 102.80,346.04"/>
    </edge>
    <edge id=":n6_2" function="internal">
        <lane id=":n6_2_0" index="0" speed="3.65" length="1.44" shape="109.54,348.00 108.34,347.20"/>
    </edge>
    <edge id=":n6_9" function="internal">
        <lane id=":n6_9_0" index="0" speed="7.40" length="9.59" shape="102.80,346.04 101.85,345.33 101.46,342.00 103.39,337.34"/>
    </edge>
    <edge id=":n6_10" function="internal">
        <lane id=":n6_10_0" index="0" speed="3.65" length="3.23" shape="108.34,347.20 107.94,346.40 108.34,345.60 109.54,344.80"/>
    </edge>
    <edge id=":n6_3" function="internal">
        <lane id=":n6_3_0" index="0" speed="5.67" length="9.24" shape="106.16,338.94 105.10,341.50 105.31,343.33 106.79,344.43 109.54,344.80"/>
    </edge>
    <edge id=":n6_4" function="internal">
        <lane id=":n6_4_0" index="0" speed="7.40" length="16.80" shape="106.16,338.94 103.08,342.93 100.00,344.27 96.92,342.94 93.84,338.94"/>
    </edge>
    <edge id=":n6_5" function="internal">
        <lane id=":n6_5_0" index="0" speed="3.65" length="1.44" shape="106.16,338.94 104.86,339.58"/>
    </edge>
    <edge id=":n6_11" function="internal">
        <lane id=":n6_11_0" index="0" speed="3.65" length="3.23" shape="104.86,339.58 103.97,339.52 103.48,338.78 103.39,337.34"/>
    </edge>
    <edge id=":n6_6" function="internal">
        <lane id=":n6_6_0" index="0" speed="5.67" length="9.24" shape="96.61,337.34 98.31,339.54 100.00,340.27 101.69,339.53 103.39,337.34"/>
    </edge>
    <edge id=":n6_7" function="internal">
        <lane id=":n6_7_0" index="0" speed="10.69" length="15.68" shape="96.61,337.34 99.04,340.60 102.00,342.93 105.50,344.33 109.54,344.80"/>
    </edge>
    <edge id=":n6_8" function="internal">
        <lane id=":n6_8_0" index="0" speed="3.65" length="1.32" shape="96.61,337.34 96.53,338.66"/>
    </edge>
    <edge id=":n6_12" function="internal">
        <lane id=":n6_12_0" index="0" speed="3.65" length="3.35" shape="96.53,338.66 96.52,338.78 96.03,339.52 95.14,339.58 93.84,338.94"/>
    </edge>
    <edge id=":n_center_0" function="internal">
        <lane id=":n_center_0_0" index="0" speed="9.88" length="31.07" shape="211.39,196.12 205.69,188.73 200.00,186.26 194.31,188.73 188.61,196.12"/>
    </edge>
    <edge id=":n_center_1" function="internal">
        <lane id=":n_center_1_0" index="0" speed="13.89" length="44.78" shape="211.39,196.12 204.46,186.79 196.00,180.13 186.00,176.13 174.46,174.80"/>
    </edge>
    <edge id=":n_center_2" function="internal">
        <lane id=":n_center_2_0" index="0" speed="13.89" length="51.09" shape="211.39,196.12 185.84,151.88"/>
    </edge>
    <edge id=":n_center_3" function="internal">
        <lane id=":n_center_3_0" index="0" speed="13.89" length="6.15" shape="211.39,196.12 208.94,190.47"/>
    </edge>
    <edge id=":n_center_4" function="internal">
        <lane id=":n_center_4_0" index="0" speed="10.63" length="3.79" shape="211.39,196.12 210.15,192.54"/>
    </edge>
    <edge id=":n_center_5" function="internal">
        <lane id=":n_center_5_0" index="0" speed="3.65" length="1.44" shape="211.39,196.12 211.48,194.68"/>
    </edge>
    <edge id=":n_center_36" function="internal">
        <lane id=":n_center_36_0" index="0" speed="13.89" length="41.98" shape="208.94,190.47 206.42,184.66 204.77,173.20 206.42,161.74 211.39,150.28"/>
    </edge>
    <edge id=":n_center_37" function="internal">
        <lane id=":n_center_37_0" index="0" speed="10.63" length="32.37" shape="210.15,192.54 208.07,186.54 209.62,178.75 215.59,173.52 225.54,171.60"/>
    </edge>
    <edge id=":n_center_38" function="internal">
        <lane id=":n_center_38_0" index="0" speed="3.65" length="3.23" shape="211.48,194.68 211.97,193.93 212.86,193.88 214.16,194.52"/>
    </edge>
    <edge id=":n_center_6" function="internal">
        <lane id=":n_center_6_0" index="0" speed="9.88" length="31.07" shape="225.54,174.80 216.29,176.03 211.31,179.73 210.60,185.89 214.16,194.52"/>
    </edge>
    <edge id=":n_center_7" function="internal">
        <lane id=":n_center_7_0" index="0" speed="13.89" length="44.78" shape="225.54,174.80 214.00,176.13 204.00,180.13 195.54,186.79 188.61,196.12"/>
    </edge>
    <edge id=":n_center_8" function="internal">
        <lane id=":n_center_8_0" index="0" speed="13.89" length="51.09" shape="225.54,174.80 174.46,174.80"/>
    </edge>
    <edge id=":n_center_9" function="internal">
        <lane id=":n_center_9_0" index="0" speed="13.89" length="6.15" shape="225.54,174.80 219.43,174.09"/>
    </edge>
    <edge id=":n_center_10" function="internal">
        <lane id=":n_center_10_0" index="0" speed="10.63" length="3.79" shape="225.54,174.80 221.82,174.08"/>
    </edge>
    <edge id=":n_center_11" function="internal">
        <lane id=":n_center_11_0" index="0" speed="3.65" length="1.44" shape="225.54,174.80 224.34,174.00"/>
    </edge>
    <edge id=":n_center_39" function="internal">
        <lane id=":n_center_39_0" index="0" speed="13.89" length="41.98" shape="219.43,174.09 213.14,173.37 202.38,169.07 193.29,161.91 185.84,151.88"/>
    </edge>
    <edge id=":n_center_40" function="internal">
        <lane id=":n_center_40_0" index="0" speed="10.63" length="32.37" shape="221.82,174.08 215.59,172.88 209.62,167.65 208.07,159.86 211.39,150.28"/>
    </edge>
    <edge id=":n_center_41" function="internal">
        <lane id=":n_center_41_0" index="0" speed="3.65" length="3.23" shape="224.34,174.00 223.94,173.20 224.34,172.40 225.54,171.60"/>
    </edge>
    <edge id=":n_center_12" function="internal">
        <lane id=":n_center_12_0" index="0" speed="9.88" length="31.07" shape="214.16,151.88 210.60,160.51 211.31,166.67 216.29,170.37 225.54,171.60"/>
    </edge>
    <edge id=":n_center_13" function="internal">
        <lane id=":n_center_13_0" index="0" speed="13.89" length="44.77" shape="214.16,151.88 209.54,162.54 208.00,173.20 209.54,183.86 214.16,194.52"/>
    </edge>
    <edge id=":n_center_14" function="internal">
        <lane id=":n_center_14_0" index="0" speed="13.89" length="51.09" shape="214.16,151.88 188.61,196.12"/>
    </edge>
    <edge id=":n_center_15" function="internal">
        <lane id=":n_center_15_0" index="0" speed="13.89" length="6.15" shape="214.16,151.88 210.49,156.82"/>
    </edge>
    <edge id=":n_center_16" function="internal">
        <lane id=":n_center_16_0" index="0" speed="10.63" length="3.79" shape="214.16,151.88 211.68,154.74"/>
    </edge>
    <edge id=":n_center_17" function="internal">
        <lane id=":n_center_17_0" index="0" speed="3.65" length="1.44" shape="214.16,151.88 212.86,152.52"/>
    </edge>
    <edge id=":n_center_42" function="internal">
        <lane id=":n_center_42_0" index="0" speed="13.89" length="41.98" shape="210.49,156.82 206.71,161.91 197.62,169.07 186.86,173.37 174.46,174.80"/>
    </edge>
    <edge id=":n_center_43" function="internal">
        <lane id=":n_center_43_0" index="0" speed="10.63" length="32.37" shape="211.68,154.74 207.52,159.54 200.00,162.10 192.48,159.54 185.84,151.88"/>
    </edge>
    <edge id=":n_center_44" function="internal">
        <lane id=":n_center_44_0" index="0" speed="3.65" length="3.23" shape="212.86,152.52 211.97,152.47 211.48,151.72 211.39,150.28"/>
    </edge>
    <edge id=":n_center_18" function="internal">
        <lane id=":n_center_18_0" index="0" speed="9.88" length="31.07" shape="188.61,150.28 194.31,157.67 200.00,160.14 205.69,157.67 211.39,150.28"/>
    </edge>
    <edge id=":n_center_19" function="internal">
        <lane id=":n_center_19_0" index="0" speed="13.89" length="44.78" shape="188.61,150.28 195.54,159.61 204.00,166.27 214.00,170.27 225.54,171.60"/>
    </edge>
    <edge id=":n_center_20" function="internal">
        <lane id=":n_center_20_0" index="0" speed="13.89" length="51.09" shape="188.61,150.28 214.16,194.52"/>
    </edge>
    <edge id=":n_center_21" function="internal">
        <lane id=":n_center_21_0" index="0" speed="13.89" length="6.15" shape="188.61,150.28 191.06,155.93"/>
    </edge>
    <edge id=":n_center_22" function="internal">
        <lane id=":n_center_22_0" index="0" speed="10.63" length="3.79" shape="188.61,150.28 189.85,153.86"/>
    </edge>
    <edge id=":n_center_23" function="internal">
        <lane id=":n_center_23_0" index="0" speed="3.65" length="1.44" shape="188.61,150.28 188.52,151.72"/>
    </edge>
    <edge id=":n_center_45" function="internal">
        <lane id=":n_center_45_0" index="0" speed="13.89" length="41.98" shape="191.06,155.93 193.58,161.74 195.23,173.20 193.58,184.66 188.61,196.12"/>
    </edge>
    <edge id=":n_center_46" function="internal">
        <lane id=":n_center_46_0" index="0" speed="10.63" length="32.37" shape="189.85,153.86 191.93,159.86 190.38,167.65 184.41,172.88 174.46,174.80"/>
    </edge>
    <edge id=":n_center_47" function="internal">
        <lane id=":n_center_47_0" index="0" speed="3.65" length="3.23" shape="188.52,151.72 188.03,152.47 187.14,152.52 185.84,151.88"/>
    </edge>
    <edge id=":n_center_24" function="internal">
        <lane id=":n_center_24_0" index="0" speed="9.88" length="31.07" shape="174.46,171.60 183.71,170.37 188.69,166.67 189.40,160.51 185.84,151.88"/>
    </edge>
    <edge id=":n_center_25" function="internal">
        <lane id=":n_center_25_0" index="0" speed="13.89" length="44.78" shape="174.46,171.60 186.00,170.27 196.00,166.27 204.46,159.61 211.39,150.28"/>
    </edge>
    <edge id=":n_center_26" function="internal">
        <lane id=":n_center_26_0" index="0" speed="13.89" length="51.09" shape="174.46,171.60 225.54,171.60"/>
    </edge>
    <edge id=":n_center_27" function="internal">
        <lane id=":n_center_27_0" index="0" speed="13.89" length="6.15" shape="174.46,171.60 180.57,172.31"/>
    </edge>
    <edge id=":n_center_28" function="internal">
        <lane id=":n_center_28_0" index="0" speed="10.63" length="3.79" shape="174.46,171.60 178.18,172.32"/>
    </edge>
    <edge id=":n_center_29" function="internal">
        <lane id=":n_center_29_0" index="0" speed="3.65" length="1.44" shape="174.46,171.60 175.66,172.40"/>
    </edge>
    <edge id=":n_center_48" function="internal">
        <lane id=":n_center_48_0" index="0" speed="13.89" length="41.98" shape="180.57,172.31 186.86,173.03 197.62,177.33 206.71,184.49 214.16,194.52"/>
    </edge>
    <edge id=":n_center_49" function="internal">
        <lane id=":n_center_49_0" index="0" speed="10.63" length="32.37" shape="178.18,172.32 184.41,173.52 190.38,178.75 191.93,186.54 188.61,196.12"/>
    </edge>
    <edge id=":n_center_50" function="internal">
        <lane id=":n_center_50_0" index="0" speed="3.65" length="3.23" shape="175.66,172.40 176.06,173.20 175.66,174.00 174.46,174.80"/>
    </edge>
    <edge id=":n_center_30" function="internal">
        <lane id=":n_center_30_0" index="0" speed="9.88" length="31.07" shape="185.84,194.52 189.40,185.89 188.69,179.73 183.71,176.03 174.46,174.80"/>
    </edge>
    <edge id=":n_center_31" function="internal">
        <lane id=":n_center_31_0" index="0" speed="13.89" length="44.77" shape="185.84,194.52 190.46,183.86 192.00,173.20 190.46,162.54 185.84,151.88"/>
    </edge>
    <edge id=":n_center_32" function="internal">
        <lane id=":n_center_32_0" index="0" speed="13.89" length="51.09" shape="185.84,194.52 211.39,150.28"/>
    </edge>
    <edge id=":n_center_33" function="internal">
        <lane id=":n_center_33_0" index="0" speed="13.89" length="6.15" shape="185.84,194.52 189.51,189.58"/>
    </edge>
    <edge id=":n_center_34" function="internal">
        <lane id=":n_center_34_0" index="0" speed="10.63" length="3.79" shape="185.84,194.52 188.32,191.66"/>
    </edge>
    <edge id=":n_center_35" function="internal">
        <lane id=":n_center_35_0" index="0" speed="3.65" length="1.44" shape="185.84,194.52 187.14,193.88"/>
    </edge>
    <edge id=":n_center_51" function="internal">
        <lane id=":n_center_51_0" index="0" speed="13.89" length="41.98" shape="189.51,189.58 193.29,184.49 202.38,177.33 213.14,173.03 225.54,171.60"/>
    </edge>
    <edge id=":n_center_52" function="internal">
        <lane id=":n_center_52_0" index="0" speed="10.63" length="32.37" shape="188.32,191.66 192.48,186.86 200.00,184.30 207.52,186.86 214.16,194.52"/>
    </edge>
    <edge id=":n_center_53" function="internal">
        <lane id=":n_center_53_0" index="0" speed="3.65" length="3.23" shape="187.14,193.88 188.03,193.93 188.52,194.68 188.61,196.12"/>
    </edge>

    <edge id="e1" from="n1" to="n2" priority="-1">
        <lane id="e1_0" index="0" speed="13.89" length="180.91" shape="303.39,337.34 393.84,180.66"/>
    </edge>
    <edge id="e10" from="n_center" to="n4" priority="-1">
        <lane id="e10_0" index="0" speed="13.89" length="164.91" shape="185.84,151.88 103.39,9.06"/>
    </edge>
    <edge id="e10_rev" from="n4" to="n_center" priority="-1">
        <lane id="e10_rev_0" index="0" speed="13.89" length="164.91" shape="106.16,7.46 188.61,150.28"/>
    </edge>
    <edge id="e11" from="n_center" to="n5" priority="-1">
        <lane id="e11_0" index="0" speed="13.89" length="164.91" shape="174.46,174.80 9.54,174.80"/>
    </edge>
    <edge id="e11_rev" from="n5" to="n_center" priority="-1">
        <lane id="e11_rev_0" index="0" speed="13.89" length="164.91" shape="9.54,171.60 174.46,171.60"/>
    </edge>
    <edge id="e12" from="n_center" to="n6" priority="-1">
        <lane id="e12_0" index="0" speed="13.89" length="164.91" shape="188.61,196.12 106.16,338.94"/>
    </edge>
    <edge id="e12_rev" from="n6" to="n_center" priority="-1">
        <lane id="e12_rev_0" index="0" speed="13.89" length="164.91" shape="103.39,337.34 185.84,194.52"/>
    </edge>
    <edge id="e1_rev" from="n2" to="n1" priority="-1">
        <lane id="e1_rev_0" index="0" speed="13.89" length="180.91" shape="396.61,182.26 306.16,338.94"/>
    </edge>
    <edge id="e2" from="n2" to="n3" priority="-1">
        <lane id="e2_0" index="0" speed="13.89" length="180.91" shape="393.84,165.74 303.39,9.06"/>
    </edge>
    <edge id="e2_rev" from="n3" to="n2" priority="-1">
        <lane id="e2_rev_0" index="0" speed="13.89" length="180.91" shape="306.16,7.46 396.61,164.14"/>
    </edge>
    <edge id="e3" from="n3" to="n4" priority="-1">
        <lane id="e3_0" index="0" speed="13.89" length="180.91" shape="290.46,1.60 109.54,1.60"/>
    </edge>
    <edge id="e3_rev" from="n4" to="n3" priority="-1">
        <lane id="e3_rev_0" index="0" speed="13.89" length="180.91" shape="109.54,-1.60 290.46,-1.60"/>
    </edge>
    <edge id="e4" from="n4" to="n5" priority="-1">
        <lane id="e4_0" index="0" speed="13.89" length="180.91" shape="96.61,9.06 6.16,165.74"/>
    </edge>
    <edge id="e4_rev" from="n5" to="n4" priority="-1">
        <lane id="e4_rev_0" index="0" speed="13.89" length="180.91" shape="3.39,164.14 93.84,7.46"/>
    </edge>
    <edge id="e5" from="n5" to="n6" priority="-1">
        <lane id="e5_0" index="0" speed="13.89" length="180.91" shape="6.16,180.66 96.61,337.34"/>
    </edge>
    <edge id="e5_rev" from="n6" to="n5" priority="-1">
        <lane id="e5_rev_0" index="0" speed="13.89" length="180.91" shape="93.84,338.94 3.39,182.26"/>
    </edge>
    <edge id="e6" from="n6" to="n1" priority="-1">
        <lane id="e6_0" index="0" speed="13.89" length="180.91" shape="109.54,344.80 290.46,344.80"/>
    </edge>
    <edge id="e6_rev" from="n1" to="n6" priority="-1">
        <lane id="e6_rev_0" index="0" speed="13.89" length="180.91" shape="290.46,348.00 109.54,348.00"/>
    </edge>
    <edge id="e7" from="n_center" to="n1" priority="-1">
        <lane id="e7_0" index="0" speed="13.89" length="164.91" shape="214.16,194.52 296.61,337.34"/>
    </edge>
    <edge id="e7_rev" from="n1" to="n_center" priority="-1">
        <lane id="e7_rev_0" index="0" speed="13.89" length="164.91" shape="293.84,338.94 211.39,196.12"/>
    </edge>
    <edge id="e8" from="n_center" to="n2" priority="-1">
        <lane id="e8_0" index="0" speed="13.89" length="164.91" shape="225.54,171.60 390.46,171.60"/>
    </edge>
    <edge id="e8_rev" from="n2" to="n_center" priority="-1">
        <lane id="e8_rev_0" index="0" speed="13.89" length="164.91" shape="390.46,174.80 225.54,174.80"/>
    </edge>
    <edge id="e9" from="n_center" to="n3" priority="-1">
        <lane id="e9_0" index="0" speed="13.89" length="164.91" shape="211.39,150.28 293.84,7.46"/>
    </edge>
    <edge id="e9_rev" from="n3" to="n_center" priority="-1">
        <lane id="e9_rev_0" index="0" speed="13.89" length="164.91" shape="296.61,9.06 214.16,151.88"/>
    </edge>
