<edges>
    <edge id="e1" from="n1" to="n2" numLanes="1" speed="13.89" />
    <edge id="e2" from="n2" to="n3" numLanes="1" speed="13.89" />
    <edge id="e3" from="n3" to="n4" numLanes="1" speed="13.89" />
    <edge id="e4" from="n4" to="n5" numLanes="1" speed="13.89" />
    <edge id="e5" from="n5" to="n6" numLanes="1" speed="13.89" />
    <edge id="e6" from="n6" to="n1" numLanes="1" speed="13.89" />
    
    <edge id="e1_rev" from="n2" to="n1" numLanes="1" speed="13.89" />
    <edge id="e2_rev" from="n3" to="n2" numLanes="1" speed="13.89" />
    <edge id="e3_rev" from="n4" to="n3" numLanes="1" speed="13.89" />
    <edge id="e4_rev" from="n5" to="n4" numLanes="1" speed="13.89" />
    <edge id="e5_rev" from="n6" to="n5" numLanes="1" speed="13.89" />
    <edge id="e6_rev" from="n1" to="n6" numLanes="1" speed="13.89" />

    <edge id="e7" from="n_center" to="n1" numLanes="1" speed="13.89" />
    <edge id="e8" from="n_center" to="n2" numLanes="1" speed="13.89" />
    <edge id="e9" from="n_center" to="n3" numLanes="1" speed="13.89" />
    <edge id="e10" from="n_center" to="n4" numLanes="1" speed="13.89" />
    <edge id="e11" from="n_center" to="n5" numLanes="1" speed="13.89" />
    <edge id="e12" from="n_center" to="n6" numLanes="1" speed="13.89" />

    <edge id="e7_rev" from="n1" to="n_center" numLanes="1" speed="13.89" />
    <edge id="e8_rev" from="n2" to="n_center" numLanes="1" speed="13.89" />
    <edge id="e9_rev" from="n3" to="n_center" numLanes="1" speed="13.89" />
    <edge id="e10_rev" from="n4" to="n_center" numLanes="1" speed="13.89" />
    <edge id="e11_rev" from="n5" to="n_center" numLanes="1" speed="13.89" />
    <edge id="e12_rev" from="n6" to="n_center" numLanes="1" speed="13.89" />
</edges>