<configuration>
<input>
<net-file value="hexagon.net.xml"/>
<route-files value="hexagon.rou.xml"/>
<additional-files value="hospitals.add.xml, detectors.add.xml"/>
</input>
<time>
<begin value="0"/>
<end value="4000"/>
</time>
<output>
<tripinfo-output value="tripinfo_results.xml"/>
</output>
</configuration>